STAAD SPACE
START JOB INFORMATION
ENGINEER DATE 20-12-21
END JOB INFORMATION
INPUT WIDTH 79
UNIT METER KN
JOINT COORDINATES
1 0 0 0; 2 0 1.4 0; 3 0 4.66 0; 4 0 4.8 0; 
5 0 6.2 0; 6 0 9.46 0; 7 0 9.6 0; 8 0 11 0; 
9 0 14.26 0; 10 0 14.4 0; 11 0 15.4 0; 12 0 18.25 0; 
13 0 18.4 0; 14 1.2 0 0; 15 1.2 1.4 0; 16 1.2 4.66 0; 
17 1.2 4.8 0; 18 1.2 6.2 0; 19 1.2 9.46 0; 20 1.2 9.6 0; 
21 1.2 11 0; 22 1.2 14.26 0; 23 1.2 14.4 0; 24 1.2 15.4 0; 
25 1.2 18.25 0; 26 1.2 18.4 0; 27 2.4 0 0; 28 2.4 1.4 0; 
29 2.4 4.66 0; 30 2.4 4.8 0; 31 2.4 6.2 0; 32 2.4 9.46 0; 
33 2.4 9.6 0; 34 2.4 11 0; 35 2.4 14.26 0; 36 2.4 14.4 0; 
37 2.4 15.4 0; 38 2.4 18.25 0; 39 2.4 18.4 0; 
MEMBER INCIDENCES
1 1 2; 2 2 3; 3 3 4; 4 4 5; 5 5 6; 6 6 7; 
7 7 8; 8 8 9; 9 9 10; 10 10 11; 11 11 12; 12 12 13; 
13 14 15; 14 15 16; 15 16 17; 16 17 18; 17 18 19; 18 19 20; 
19 20 21; 20 21 22; 21 22 23; 22 23 24; 23 24 25; 24 25 26; 
25 27 28; 26 28 29; 27 29 30; 28 30 31; 29 31 32; 30 32 33; 
31 33 34; 32 34 35; 33 35 36; 34 36 37; 35 37 38; 36 38 39; 
37 1 14; 38 14 27; 39 2 15; 40 15 28; 41 4 17; 42 17 30; 
43 5 18; 44 18 31; 45 7 20; 46 20 33; 47 8 21; 48 21 34; 
49 10 23; 50 23 36; 51 11 24; 52 24 37; 53 13 26; 54 26 39; 
UNIT CM NEWTON
DEFINE MATERIAL START
ISOTROPIC ALUMINUM
E 6.89476e+006
POISSON 0.33
DENSITY 0.0271018
ALPHA 2.3e-005
DAMP 0.03
ISOTROPIC CONCRETE
E 2.17185e+006
POISSON 0.17
DENSITY 0.0235616
ALPHA 1e-005
DAMP 0.05
*TYPE CONCRETE
*STRENGTH FCU 2757.9
ISOTROPIC STEEL
E 2.05e+007
POISSON 0.3
DENSITY 0.0768195
ALPHA 1.2e-005
DAMP 0.03
TYPE STEEL
STRENGTH FY 25320 FU 40780 RY 1.5 RT 1.2
END DEFINE MATERIAL
CONSTANTS
BETA 90 ALL
MATERIAL ALUMINUM ALL
UNIT CM KN
MEMBER PROPERTY AMERICAN
1 TO 36 PRIS AX 15.11 IX 25.95 IY 25.95 IZ 218.77 YD 4.52 ZD 7.6
41 TO 42 45 TO 46 49 TO 50 PRIS AX 28.07 IX 231.81 IY 231.81 IZ 789.19 YD 16 ZD 16
53 TO 54 PRIS AX 8.9 IX 87.04 IY 87.04 IZ 150.9 YD 16 ZD 8
37 TO 38 PRIS AX 19.17 IX 144.77 IY 144.77 IZ 638.29 YD 16 ZD 8
39 TO 40 43 TO 44 47 TO 48 51 TO 52 PRIS AX 8.9 IX 87.04 IY 87.04 IZ 150.9 YD 10 ZD 8
UNIT MMS KN
SUPPORTS
1 14 27 FIXED BUT FY MX MY MZ
3 6 9 12 16 19 22 25 29 32 35 38 PINNED
UNIT METER KN
MEMBER RELEASE
39 TO 54 START MY MZ
39 TO 54 END MY MZ
4 START FX MY MZ
7 START FX MY MZ
10 START FX MY MZ
16 START FX MY MZ
19 START FX MY MZ
22 START FX MY MZ
28 START FX MY MZ
31 START FX MY MZ
34 START FX MY MZ
UNIT CM KN
LOAD 1 LOADTYPE None  TITLE DL
UNIT METER KN
SELFWEIGHT Y -1 
MEMBER LOAD
37 CON GY -0.294 0.17
37 CON GY -0.294 1.03
38 CON GY -0.294 0.17
38 CON GY -0.294 1.03
39 CON GY -0.714 0.17
39 CON GY -0.714 1.03
40 CON GY -0.714 0.17
40 CON GY -0.714 1.03
41 CON GY -0.294 0.17
41 CON GY -0.294 1.03
42 CON GY -0.294 0.17
42 CON GY -0.294 1.03
43 CON GY -0.714 0.17
43 CON GY -0.714 1.03
44 CON GY -0.714 0.17
44 CON GY -0.714 1.03
45 CON GY -0.294 0.17
45 CON GY -0.294 1.03
46 CON GY -0.294 0.17
46 CON GY -0.294 1.03
# ... 12 like lines cut
UNIT CM KN
LOAD 2 LOADTYPE None  TITLE WL
UNIT METER KN
FLOOR LOAD
ZRANGE -100 100 FLOAD -1.9 XRANGE -100 100  YRANGE -100 100  GZ
UNIT CM KN
LOAD COMB 3 DL+WL
1 1.0 2 1.0 
LOAD COMB 4 DL-WL
1 1.0 2 -1.0 
UNIT METER KN
PERFORM ANALYSIS
FINISH
