STAAD SPACE
START JOB INFORMATION
ENGINEER DATE 20-12-21
END JOB INFORMATION
INPUT WIDTH 79
UNIT METER KN
JOINT COORDINATES
1 0 0 0; 2 0 1.4 0; 3 0 4.66 0; 4 0 4.8 0; 
5 0 6.2 0; 6 0 9.46 0; 7 0 9.6 0; 8 0 11 0; 
9 0 14.8 0; 10 0 15.66 0; 11 0 15.8 0; 12 1.3 0 0; 
13 1.3 1.4 0; 14 1.3 4.66 0; 15 1.3 4.8 0; 16 1.3 6.2 0; 
17 1.3 9.46 0; 18 1.3 9.6 0; 19 1.3 11 0; 20 1.3 14.8 0; 
21 1.3 15.66 0; 22 1.3 15.8 0; 23 2.6 0 0; 24 2.6 1.4 0; 
25 2.6 4.66 0; 26 2.6 4.8 0; 27 2.6 6.2 0; 28 2.6 9.46 0; 
29 2.6 9.6 0; 30 2.6 11 0; 31 2.6 14.8 0; 32 2.6 15.66 0; 
33 2.6 15.8 0; 34 3.9 0 0; 35 3.9 1.4 0; 36 3.9 4.66 0; 
37 3.9 4.8 0; 38 3.9 6.2 0; 39 3.9 9.46 0; 40 3.9 9.6 0; 
41 3.9 11 0; 42 3.9 14.8 0; 43 3.9 15.66 0; 44 3.9 15.8 0; 
MEMBER INCIDENCES
1 1 2; 2 2 3; 3 3 4; 4 4 5; 5 5 6; 6 6 7; 
7 7 8; 8 8 9; 9 9 10; 10 10 11; 11 12 13; 12 13 14; 
13 14 15; 14 15 16; 15 16 17; 16 17 18; 17 18 19; 18 19 20; 
19 20 21; 20 21 22; 21 23 24; 22 24 25; 23 25 26; 24 26 27; 
25 27 28; 26 28 29; 27 29 30; 28 30 31; 29 31 32; 30 32 33; 
31 34 35; 32 35 36; 33 36 37; 34 37 38; 35 38 39; 36 39 40; 
37 40 41; 38 41 42; 39 42 43; 40 43 44; 41 1 12; 42 12 23; 
43 23 34; 44 2 13; 45 13 24; 46 24 35; 47 4 15; 48 15 26; 
49 26 37; 50 5 16; 51 16 27; 52 27 38; 53 7 18; 54 18 29; 
55 29 40; 56 8 19; 57 19 30; 58 30 41; 59 9 20; 60 20 31; 
61 31 42; 62 11 22; 63 22 33; 64 33 44; 
UNIT CM NEWTON
DEFINE MATERIAL START
ISOTROPIC ALUMINUM
E 6.89476e+006
POISSON 0.33
DENSITY 0.0271018
ALPHA 2.3e-005
DAMP 0.03
ISOTROPIC CONCRETE
E 2.17185e+006
POISSON 0.17
DENSITY 0.0235616
ALPHA 1e-005
DAMP 0.05
*TYPE CONCRETE
*STRENGTH FCU 2757.9
ISOTROPIC STEEL
E 2.05e+007
POISSON 0.3
DENSITY 0.0768195
ALPHA 1.2e-005
DAMP 0.03
TYPE STEEL
STRENGTH FY 25320 FU 40780 RY 1.5 RT 1.2
END DEFINE MATERIAL
CONSTANTS
BETA 90 ALL
MATERIAL ALUMINUM ALL
UNIT CM KN
MEMBER PROPERTY AMERICAN
1 TO 40 PRIS AX 18.98 IX 25.95 IY 25.95 IZ 330.12 YD 4.52 ZD 7.6
47 TO 49 53 TO 55 PRIS AX 17.43 IX 25.95 IY 25.95 IZ 239.12 YD 4.52 ZD 7.6
62 TO 64 PRIS AX 6.7 IX 4.45 IY 4.45 IZ 30 YD 4.52 ZD 3.8
41 TO 43 PRIS AX 10.73 IX 21.5 IY 21.5 IZ 209.12 YD 13.86 ZD 3.8
44 TO 46 50 TO 52 56 TO 61 PRIS AX 8.9 IX 87.04 IY 87.04 IZ 150.9 YD 10 ZD 8
UNIT MMS KN
SUPPORTS
1 12 23 34 FIXED BUT FY MX MY MZ
3 6 10 14 17 21 25 28 32 36 39 43 PINNED
UNIT METER KN
MEMBER RELEASE
44 TO 64 START MY MZ
44 TO 64 END MY MZ
4 START FX MY MZ
7 START FX MY MZ
14 START FX MY MZ
17 START FX MY MZ
24 START FX MY MZ
27 START FX MY MZ
34 START FX MY MZ
37 START FX MY MZ
UNIT CM KN
LOAD 1 LOADTYPE None  TITLE DL
UNIT METER KN
SELFWEIGHT Y -1 
MEMBER LOAD
41 CON GY -0.3185 0.15
41 CON GY -0.3185 1.15
42 CON GY -0.3185 0.15
42 CON GY -0.3185 1.15
43 CON GY -0.3185 0.15
43 CON GY -0.3185 1.15
44 CON GY -0.7735 0.15
44 CON GY -0.7735 1.15
45 CON GY -0.7735 0.15
45 CON GY -0.7735 1.15
46 CON GY -0.7735 0.15
46 CON GY -0.7735 1.15
47 CON GY -0.3185 0.15
47 CON GY -0.3185 1.15
48 CON GY -0.3185 0.15
48 CON GY -0.3185 1.15
49 CON GY -0.3185 0.15
49 CON GY -0.3185 1.15
50 CON GY -0.7735 0.15
50 CON GY -0.7735 1.15
# ... 22 like lines cut
UNIT CM KN
LOAD 2 LOADTYPE None  TITLE WL
UNIT METER KN
FLOOR LOAD
ZRANGE -100 100 FLOAD -1.8 XRANGE -100 100  YRANGE -100 100  GZ
UNIT CM KN
LOAD COMB 3 DL+WL
1 1.0 2 1.0 
LOAD COMB 4 DL-WL
1 1.0 2 -1.0 
UNIT METER KN
PERFORM ANALYSIS
FINISH
