STAAD SPACE
START JOB INFORMATION
ENGINEER DATE 20-12-21
END JOB INFORMATION
INPUT WIDTH 79
UNIT METER KN
JOINT COORDINATES
1 0 0 0; 2 0 0.075 0; 3 0 0.325 0; 4 0 0.575 0; 
5 0 0.825 0; 6 0 0.9 0; 7 0 0.975 0; 8 0 1.475 0; 
9 0 1.975 0; 10 0 2.475 0; 11 0 2.55 0; 12 3.15 0 0; 
13 3.15 0.075 0; 14 3.15 0.325 0; 15 3.15 0.575 0; 16 3.15 0.825 0; 
17 3.15 0.9 0; 18 3.15 0.975 0; 19 3.15 1.475 0; 20 3.15 1.975 0; 
21 3.15 2.475 0; 22 3.15 2.55 0; 23 1.05 0 0; 24 1.05 0.9 0; 
25 1.05 2.55 0; 26 2.1 0 0; 27 2.1 0.9 0; 28 2.1 2.55 0; 
29 0.075 0 0; 30 0.375 0 0; 31 0.675 0 0; 32 0.975 0 0; 
33 1.125 0 0; 34 1.425 0 0; 35 1.725 0 0; 36 2.025 0 0; 
37 2.175 0 0; 38 2.475 0 0; 39 2.775 0 0; 40 3.075 0 0; 
41 0.075 2.55 0; 42 0.375 2.55 0; 43 0.675 2.55 0; 44 0.975 2.55 0; 
45 1.125 2.55 0; 46 1.425 2.55 0; 47 1.725 2.55 0; 48 2.025 2.55 0; 
49 2.175 2.55 0; 50 2.475 2.55 0; 51 2.775 2.55 0; 52 3.075 2.55 0; 
MEMBER INCIDENCES
1 1 2; 2 2 3; 3 3 4; 4 4 5; 5 5 6; 6 6 7; 
7 7 8; 8 8 9; 9 9 10; 10 10 11; 11 12 13; 12 13 14; 
13 14 15; 14 15 16; 15 16 17; 16 17 18; 17 18 19; 18 19 20; 
19 20 21; 20 21 22; 21 23 24; 22 24 25; 23 26 27; 24 27 28; 
25 1 29; 26 29 30; 27 30 31; 28 31 32; 29 32 23; 30 23 33; 
31 33 34; 32 34 35; 33 35 36; 34 36 26; 35 26 37; 36 37 38; 
37 38 39; 38 39 40; 39 40 12; 40 6 24; 41 24 27; 42 27 17; 
43 11 41; 44 41 42; 45 42 43; 46 43 44; 47 44 25; 48 25 45; 
49 45 46; 50 46 47; 51 47 48; 52 48 28; 53 28 49; 54 49 50; 
55 50 51; 56 51 52; 57 52 22; 
UNIT CM NEWTON
DEFINE MATERIAL START
ISOTROPIC ALUMINUM
E 6.89476e+006
POISSON 0.33
DENSITY 0.0271018
ALPHA 2.3e-005
DAMP 0.03
ISOTROPIC CONCRETE
E 2.17185e+006
POISSON 0.17
DENSITY 0.0235616
ALPHA 1e-005
DAMP 0.05
*TYPE CONCRETE
*STRENGTH FCU 2757.9
ISOTROPIC STEEL
E 2.05e+007
POISSON 0.3
DENSITY 0.0768195
ALPHA 1.2e-005
DAMP 0.03
TYPE STEEL
STRENGTH FY 25320 FU 40780 RY 1.5 RT 1.2
END DEFINE MATERIAL
CONSTANTS
BETA 90 ALL
MATERIAL ALUMINUM ALL
UNIT CM KN
MEMBER PROPERTY AMERICAN
1 TO 20 25 TO 39 PRIS AX 19.17 IX 144.77 IY 144.77 IZ 638.29 YD 16 ZD 8
40 TO 42 PRIS AX 6.25 IX 46.24 IY 46.24 IZ 200 YD 10 ZD 6
43 TO 57 PRIS AX 17.56 IX 148.35 IY 148.35 IZ 618.31 YD 16 ZD 8
21 TO 24 PRIS AX 17.56 IX 148.35 IY 148.35 IZ 618.31 YD 16 ZD 8
UNIT MMS KN
SUPPORTS
2 TO 5 7 TO 10 13 TO 16 18 TO 21 29 TO 52 PINNED
UNIT METER KN
MEMBER RELEASE
21 TO 24 40 START MY MZ
21 TO 24 42 END MY MZ
UNIT CM KN
LOAD 1 LOADTYPE None  TITLE DL
UNIT METER KN
SELFWEIGHT Y -1 
MEMBER LOAD
26 CON GY -0.0945 0.075
28 CON GY -0.0945 0.225
31 CON GY -0.0945 0.075
33 CON GY -0.0945 0.225
36 CON GY -0.0945 0.075
38 CON GY -0.0945 0.225
40 CON GY -0.17325 0.15
40 CON GY -0.17325 0.9
41 CON GY -0.17325 0.15
41 CON GY -0.17325 0.9
42 CON GY -0.17325 0.15
42 CON GY -0.17325 0.9
UNIT CM KN
LOAD 2 LOADTYPE None  TITLE WL
UNIT METER KN
FLOOR LOAD
ZRANGE -100 100 FLOAD -1.75 XRANGE -100 100  YRANGE -100 100  GZ
UNIT CM KN
LOAD COMB 3 DL+WL
1 1.0 2 1.0 
LOAD COMB 4 DL-WL
1 1.0 2 -1.0 
UNIT METER KN
PERFORM ANALYSIS
FINISH
