STAAD SPACE
UNIT METER NEWTON
JOINT COORDINATES
1 0 0 0; 2 4 0 0
MEMBER INCIDENCES
1 1 2
DEFINE MATERIAL START
ISOTROPIC TEST
E 200000000000
POISSON 0.3
DENSITY 0
END DEFINE MATERIAL
CONSTANTS
MATERIAL TEST ALL
MEMBER PROPERTY AMERICAN
1 PRIS AX 0.01 IX 0.00001 IY 0.00002 IZ 0.00004
SUPPORTS
1 FIXED
LOAD 1 TITLE TIP_FORCE
JOINT LOAD
2 FY -1000
LOAD COMB 2 TITLE DOUBLE
1 2
PERFORM ANALYSIS
FINISH
