STAAD SPACE
START JOB INFORMATION
ENGINEER DATE 20-12-21
END JOB INFORMATION
INPUT WIDTH 79
UNIT METER KN
JOINT COORDINATES
1 0 0 0; 2 0 0.075 0; 3 0 0.325 0; 4 0 0.575 0; 
5 0 0.825 0; 6 0 0.9 0; 7 0 0.975 0; 8 0 1.475 0; 
9 0 1.975 0; 10 0 2.475 0; 11 0 2.55 0; 12 3.15 0 0; 
13 3.15 0.075 0; 14 3.15 0.325 0; 15 3.15 0.575 0; 16 3.15 0.825 0; 
17 3.15 0.9 0; 18 3.15 0.975 0; 19 3.15 1.475 0; 20 3.15 1.975 0; 
21 3.15 2.475 0; 22 3.15 2.55 0; 23 0.787 0 0; 24 0.787 0.9 0; 
25 0.787 2.55 0; 26 1.575 0 0; 27 1.575 0.9 0; 28 1.575 2.55 0; 
29 2.362 0 0; 30 2.362 0.9 0; 31 2.362 2.55 0; 32 0.075 0 0; 
33 0.288 0 0; 34 0.5 0 0; 35 0.713 0 0; 36 0.862 0 0; 
37 1.075 0 0; 38 1.288 0 0; 39 1.5 0 0; 40 1.65 0 0; 
41 1.862 0 0; 42 2.075 0 0; 43 2.287 0 0; 44 2.438 0 0; 
45 2.65 0 0; 46 2.862 0 0; 47 3.075 0 0; 48 0.075 2.55 0; 
49 0.288 2.55 0; 50 0.5 2.55 0; 51 0.713 2.55 0; 52 0.862 2.55 0; 
53 1.075 2.55 0; 54 1.288 2.55 0; 55 1.5 2.55 0; 56 1.65 2.55 0; 
57 1.862 2.55 0; 58 2.075 2.55 0; 59 2.287 2.55 0; 60 2.438 2.55 0; 
61 2.65 2.55 0; 62 2.862 2.55 0; 63 3.075 2.55 0; 
MEMBER INCIDENCES
1 1 2; 2 2 3; 3 3 4; 4 4 5; 5 5 6; 6 6 7; 
7 7 8; 8 8 9; 9 9 10; 10 10 11; 11 12 13; 12 13 14; 
13 14 15; 14 15 16; 15 16 17; 16 17 18; 17 18 19; 18 19 20; 
19 20 21; 20 21 22; 21 23 24; 22 24 25; 23 26 27; 24 27 28; 
25 29 30; 26 30 31; 27 1 32; 28 32 33; 29 33 34; 30 34 35; 
31 35 23; 32 23 36; 33 36 37; 34 37 38; 35 38 39; 36 39 26; 
37 26 40; 38 40 41; 39 41 42; 40 42 43; 41 43 29; 42 29 44; 
43 44 45; 44 45 46; 45 46 47; 46 47 12; 47 6 24; 48 24 27; 
49 27 30; 50 30 17; 51 11 48; 52 48 49; 53 49 50; 54 50 51; 
55 51 25; 56 25 52; 57 52 53; 58 53 54; 59 54 55; 60 55 28; 
61 28 56; 62 56 57; 63 57 58; 64 58 59; 65 59 31; 66 31 60; 
67 60 61; 68 61 62; 69 62 63; 70 63 22; 
UNIT CM NEWTON
DEFINE MATERIAL START
ISOTROPIC ALUMINUM
E 6.89476e+006
POISSON 0.33
DENSITY 0.0271018
ALPHA 2.3e-005
DAMP 0.03
ISOTROPIC CONCRETE
E 2.17185e+006
POISSON 0.17
DENSITY 0.0235616
ALPHA 1e-005
DAMP 0.05
*TYPE CONCRETE
*STRENGTH FCU 2757.9
ISOTROPIC STEEL
E 2.05e+007
POISSON 0.3
DENSITY 0.0768195
ALPHA 1.2e-005
DAMP 0.03
TYPE STEEL
STRENGTH FY 25320 FU 40780 RY 1.5 RT 1.2
END DEFINE MATERIAL
CONSTANTS
BETA 90 ALL
MATERIAL ALUMINUM ALL
UNIT CM KN
MEMBER PROPERTY AMERICAN
1 TO 20 27 TO 46 PRIS AX 19.17 IX 144.77 IY 144.77 IZ 638.29 YD 16 ZD 8
47 TO 50 PRIS AX 6.25 IX 46.24 IY 46.24 IZ 200 YD 10 ZD 6
25 TO 26 51 TO 70 PRIS AX 17.56 IX 148.35 IY 148.35 IZ 618.31 YD 16 ZD 8
23 TO 24 PRIS AX 17.56 IX 148.35 IY 148.35 IZ 618.31 YD 16 ZD 8
21 TO 22 PRIS AX 50.4 IX 35.7 IY 35.7 IZ 486 YD 4.52 ZD 8.42
UNIT MMS KN
SUPPORTS
2 TO 5 7 TO 10 13 TO 16 18 TO 21 32 TO 63 PINNED
UNIT METER KN
MEMBER RELEASE
21 TO 26 47 START MY MZ
21 TO 26 50 END MY MZ
UNIT CM KN
LOAD 1 LOADTYPE None  TITLE DL
UNIT METER KN
SELFWEIGHT Y -1 
MEMBER LOAD
28 CON GY -0.070875 0.075
30 CON GY -0.070875 0.137
33 CON GY -0.070875 0.075
35 CON GY -0.070875 0.137
38 CON GY -0.070875 0.075
40 CON GY -0.070875 0.138
43 CON GY -0.070875 0.075
45 CON GY -0.070875 0.138
47 CON GY -0.1299375 0.15
47 CON GY -0.1299375 0.637
48 CON GY -0.1299375 0.15
48 CON GY -0.1299375 0.638
49 CON GY -0.1299375 0.15
49 CON GY -0.1299375 0.637
50 CON GY -0.1299375 0.15
50 CON GY -0.1299375 0.638
UNIT CM KN
LOAD 2 LOADTYPE None  TITLE WL
UNIT METER KN
FLOOR LOAD
ZRANGE -100 100 FLOAD -1.75 XRANGE -100 100  YRANGE -100 100  GZ
UNIT CM KN
LOAD COMB 3 DL+WL
1 1.0 2 1.0 
LOAD COMB 4 DL-WL
1 1.0 2 -1.0 
UNIT METER KN
PERFORM ANALYSIS
FINISH
