STAAD SPACE
START JOB INFORMATION
ENGINEER DATE 20-12-21
END JOB INFORMATION
INPUT WIDTH 79
UNIT METER KN
JOINT COORDINATES
1 0 0 0; 2 0 1.4 0; 3 0 4.66 0; 4 0 4.8 0; 
5 0 6.2 0; 6 0 9.46 0; 7 0 9.6 0; 8 0 11 0; 
9 0 14.26 0; 10 0 14.4 0; 11 1.4 0 0; 12 1.4 1.4 0; 
13 1.4 4.66 0; 14 1.4 4.8 0; 15 1.4 6.2 0; 16 1.4 9.46 0; 
17 1.4 9.6 0; 18 1.4 11 0; 19 1.4 14.26 0; 20 1.4 14.4 0; 
21 2.8 0 0; 22 2.8 1.4 0; 23 2.8 4.66 0; 24 2.8 4.8 0; 
25 2.8 6.2 0; 26 2.8 9.46 0; 27 2.8 9.6 0; 28 2.8 11 0; 
29 2.8 14.26 0; 30 2.8 14.4 0; 31 4.2 0 0; 32 4.2 1.4 0; 
33 4.2 4.66 0; 34 4.2 4.8 0; 35 4.2 6.2 0; 36 4.2 9.46 0; 
37 4.2 9.6 0; 38 4.2 11 0; 39 4.2 14.26 0; 40 4.2 14.4 0; 
41 5.6 0 0; 42 5.6 1.4 0; 43 5.6 4.66 0; 44 5.6 4.8 0; 
45 5.6 6.2 0; 46 5.6 9.46 0; 47 5.6 9.6 0; 48 5.6 11 0; 
49 5.6 14.26 0; 50 5.6 14.4 0; 51 7.1 0 0; 52 7.1 1.4 0; 
53 7.1 4.66 0; 54 7.1 4.8 0; 55 7.1 6.2 0; 56 7.1 9.46 0; 
57 7.1 9.6 0; 58 7.1 11 0; 59 7.1 14.26 0; 60 7.1 14.4 0; 
61 8.6 0 0; 62 8.6 1.4 0; 63 8.6 4.66 0; 64 8.6 4.8 0; 
65 8.6 6.2 0; 66 8.6 9.46 0; 67 8.6 9.6 0; 68 8.6 11 0; 
69 8.6 14.26 0; 70 8.6 14.4 0; 
MEMBER INCIDENCES
1 1 2; 2 2 3; 3 3 4; 4 4 5; 5 5 6; 6 6 7; 
7 7 8; 8 8 9; 9 9 10; 10 11 12; 11 12 13; 12 13 14; 
13 14 15; 14 15 16; 15 16 17; 16 17 18; 17 18 19; 18 19 20; 
19 21 22; 20 22 23; 21 23 24; 22 24 25; 23 25 26; 24 26 27; 
25 27 28; 26 28 29; 27 29 30; 28 31 32; 29 32 33; 30 33 34; 
31 34 35; 32 35 36; 33 36 37; 34 37 38; 35 38 39; 36 39 40; 
37 41 42; 38 42 43; 39 43 44; 40 44 45; 41 45 46; 42 46 47; 
43 47 48; 44 48 49; 45 49 50; 46 51 52; 47 52 53; 48 53 54; 
49 54 55; 50 55 56; 51 56 57; 52 57 58; 53 58 59; 54 59 60; 
55 61 62; 56 62 63; 57 63 64; 58 64 65; 59 65 66; 60 66 67; 
61 67 68; 62 68 69; 63 69 70; 64 1 11; 65 11 21; 66 21 31; 
67 31 41; 68 41 51; 69 51 61; 70 2 12; 71 12 22; 72 22 32; 
73 32 42; 74 42 52; 75 52 62; 76 4 14; 77 14 24; 78 24 34; 
79 34 44; 80 44 54; 81 54 64; 82 5 15; 83 15 25; 84 25 35; 
85 35 45; 86 45 55; 87 55 65; 88 7 17; 89 17 27; 90 27 37; 
91 37 47; 92 47 57; 93 57 67; 94 8 18; 95 18 28; 96 28 38; 
97 38 48; 98 48 58; 99 58 68; 100 10 20; 101 20 30; 102 30 40; 
103 40 50; 104 50 60; 105 60 70; 
UNIT CM NEWTON
DEFINE MATERIAL START
ISOTROPIC ALUMINUM
E 6.89476e+006
POISSON 0.33
DENSITY 0.0271018
ALPHA 2.3e-005
DAMP 0.03
ISOTROPIC CONCRETE
E 2.17185e+006
POISSON 0.17
DENSITY 0.0235616
ALPHA 1e-005
DAMP 0.05
*TYPE CONCRETE
*STRENGTH FCU 2757.9
ISOTROPIC STEEL
E 2.05e+007
POISSON 0.3
DENSITY 0.0768195
ALPHA 1.2e-005
DAMP 0.03
TYPE STEEL
STRENGTH FY 25320 FU 40780 RY 1.5 RT 1.2
END DEFINE MATERIAL
CONSTANTS
BETA 90 ALL
MATERIAL ALUMINUM ALL
UNIT CM KN
MEMBER PROPERTY AMERICAN
1 TO 63 PRIS AX 15.11 IX 25.95 IY 25.95 IZ 218.77 YD 4.52 ZD 7.6
76 TO 81 88 TO 93 PRIS AX 28.07 IX 231.81 IY 231.81 IZ 789.19 YD 16 ZD 16
100 TO 105 PRIS AX 8.9 IX 87.04 IY 87.04 IZ 150.9 YD 16 ZD 8
64 TO 69 PRIS AX 19.17 IX 144.77 IY 144.77 IZ 638.29 YD 16 ZD 8
70 TO 75 82 TO 87 94 TO 99 PRIS AX 8.9 IX 87.04 IY 87.04 IZ 150.9 YD 10 ZD 8
UNIT MMS KN
SUPPORTS
1 11 21 31 41 51 61 FIXED BUT FY MX MY MZ
3 6 9 13 16 19 23 26 29 33 36 39 43 46 49 53 56 59 63 66 69 PINNED
UNIT METER KN
MEMBER RELEASE
70 TO 105 START MY MZ
70 TO 105 END MY MZ
4 START FX MY MZ
7 START FX MY MZ
13 START FX MY MZ
16 START FX MY MZ
22 START FX MY MZ
25 START FX MY MZ
31 START FX MY MZ
34 START FX MY MZ
40 START FX MY MZ
43 START FX MY MZ
49 START FX MY MZ
52 START FX MY MZ
58 START FX MY MZ
61 START FX MY MZ
UNIT CM KN
LOAD 1 LOADTYPE None  TITLE DL
UNIT METER KN
SELFWEIGHT Y -1 
MEMBER LOAD
64 CON GY -0.4165 0.15
64 CON GY -0.4165 1.25
65 CON GY -0.4165 0.15
65 CON GY -0.4165 1.25
66 CON GY -0.4165 0.15
66 CON GY -0.4165 1.25
67 CON GY -0.4165 0.15
67 CON GY -0.4165 1.25
68 CON GY -0.44625 0.15
68 CON GY -0.44625 1.35
69 CON GY -0.44625 0.15
69 CON GY -0.44625 1.35
70 CON GY -1.0115 0.15
70 CON GY -1.0115 1.25
71 CON GY -1.0115 0.15
71 CON GY -1.0115 1.25
72 CON GY -1.0115 0.15
72 CON GY -1.0115 1.25
73 CON GY -1.0115 0.15
73 CON GY -1.0115 1.25
# ... 52 like lines cut
UNIT CM KN
LOAD 2 LOADTYPE None  TITLE WL
UNIT METER KN
FLOOR LOAD
ZRANGE -100 100 FLOAD -1.8 XRANGE -100 100  YRANGE -100 100  GZ
UNIT CM KN
LOAD COMB 3 DL+WL
1 1.0 2 1.0 
LOAD COMB 4 DL-WL
1 1.0 2 -1.0 
UNIT METER KN
PERFORM ANALYSIS
FINISH
