STAAD SPACE
START JOB INFORMATION
ENGINEER DATE 20-12-21
END JOB INFORMATION
INPUT WIDTH 79
UNIT METER KN
JOINT COORDINATES
1 0 0 0; 2 0 1.4 0; 3 0 4.8 0; 4 0 5.66 0; 
5 0 5.8 0; 6 0 7.2 0; 7 0 10.46 0; 8 0 10.6 0; 
9 0 12 0; 10 0 15.06 0; 11 0 15.26 0; 12 0 15.4 0; 
13 1.2 0 0; 14 1.2 1.4 0; 15 1.2 4.8 0; 16 1.2 5.66 0; 
17 1.2 5.8 0; 18 1.2 7.2 0; 19 1.2 10.46 0; 20 1.2 10.6 0; 
21 1.2 12 0; 22 1.2 15.06 0; 23 1.2 15.26 0; 24 1.2 15.4 0; 
25 2.8 0 0; 26 2.8 1.4 0; 27 2.8 4.8 0; 28 2.8 5.66 0; 
29 2.8 5.8 0; 30 2.8 7.2 0; 31 2.8 10.46 0; 32 2.8 10.6 0; 
33 2.8 12 0; 34 2.8 15.06 0; 35 2.8 15.26 0; 36 2.8 15.4 0; 
37 4 0 0; 38 4 1.4 0; 39 4 4.8 0; 40 4 5.66 0; 
41 4 5.8 0; 42 4 7.2 0; 43 4 10.46 0; 44 4 10.6 0; 
45 4 12 0; 46 4 15.06 0; 47 4 15.26 0; 48 4 15.4 0; 
MEMBER INCIDENCES
1 1 2; 2 2 3; 3 3 4; 4 4 5; 5 5 6; 6 6 7; 
7 7 8; 8 8 9; 9 9 10; 10 10 11; 11 11 12; 12 13 14; 
13 14 15; 14 15 16; 15 16 17; 16 17 18; 17 18 19; 18 19 20; 
19 20 21; 20 21 22; 21 22 23; 22 23 24; 23 25 26; 24 26 27; 
25 27 28; 26 28 29; 27 29 30; 28 30 31; 29 31 32; 30 32 33; 
31 33 34; 32 34 35; 33 35 36; 34 37 38; 35 38 39; 36 39 40; 
37 40 41; 38 41 42; 39 42 43; 40 43 44; 41 44 45; 42 45 46; 
43 46 47; 44 47 48; 45 1 13; 46 13 25; 47 25 37; 48 2 14; 
49 14 26; 50 26 38; 51 3 15; 52 15 27; 53 27 39; 54 5 17; 
55 17 29; 56 29 41; 57 6 18; 58 18 30; 59 30 42; 60 8 20; 
61 20 32; 62 32 44; 63 9 21; 64 21 33; 65 33 45; 66 12 24; 
67 24 36; 68 36 48; 
UNIT CM NEWTON
DEFINE MATERIAL START
ISOTROPIC ALUMINUM
E 6.89476e+006
POISSON 0.33
DENSITY 0.0271018
ALPHA 2.3e-005
DAMP 0.03
ISOTROPIC CONCRETE
E 2.17185e+006
POISSON 0.17
DENSITY 0.0235616
ALPHA 1e-005
DAMP 0.05
*TYPE CONCRETE
*STRENGTH FCU 2757.9
ISOTROPIC STEEL
E 2.05e+007
POISSON 0.3
DENSITY 0.0768195
ALPHA 1.2e-005
DAMP 0.03
TYPE STEEL
STRENGTH FY 25320 FU 40780 RY 1.5 RT 1.2
END DEFINE MATERIAL
CONSTANTS
BETA 90 ALL
MATERIAL ALUMINUM ALL
UNIT CM KN
MEMBER PROPERTY AMERICAN
1 TO 44 PRIS AX 15.11 IX 25.95 IY 25.95 IZ 218.77 YD 4.52 ZD 7.6
54 TO 56 60 TO 62 PRIS AX 28.07 IX 231.81 IY 231.81 IZ 789.19 YD 16 ZD 16
66 TO 68 PRIS AX 8.9 IX 87.04 IY 87.04 IZ 150.9 YD 16 ZD 8
45 TO 47 PRIS AX 19.17 IX 144.77 IY 144.77 IZ 638.29 YD 16 ZD 8
48 TO 53 57 TO 59 63 TO 65 PRIS AX 8.9 IX 87.04 IY 87.04 IZ 150.9 YD 10 ZD 8
UNIT MMS KN
SUPPORTS
1 4 10 13 16 22 25 28 34 37 40 46 FIXED BUT FY MX MY MZ
7 11 19 23 31 35 43 47 PINNED
UNIT METER KN
MEMBER RELEASE
48 TO 68 START MY MZ
48 TO 68 END MY MZ
5 START FX MY MZ
8 START FX MY MZ
16 START FX MY MZ
19 START FX MY MZ
27 START FX MY MZ
30 START FX MY MZ
38 START FX MY MZ
41 START FX MY MZ
UNIT CM KN
LOAD 1 LOADTYPE None  TITLE DL
UNIT METER KN
SELFWEIGHT Y -1 
MEMBER LOAD
45 CON GY -0.294 0.15
45 CON GY -0.294 1.05
46 CON GY -0.392 0.15
46 CON GY -0.392 1.45
47 CON GY -0.294 0.15
47 CON GY -0.294 1.05
48 CON GY -0.714 0.15
48 CON GY -0.714 1.05
49 CON GY -0.952 0.15
49 CON GY -0.952 1.45
50 CON GY -0.714 0.15
50 CON GY -0.714 1.05
51 CON GY -0.21 0.15
51 CON GY -0.21 1.05
52 CON GY -0.28 0.15
52 CON GY -0.28 1.45
53 CON GY -0.21 0.15
53 CON GY -0.21 1.05
54 CON GY -0.294 0.15
54 CON GY -0.294 1.05
# ... 22 like lines cut
* Vertical fin DL Ry reaction load applied - source support Y=1 m, source node=3, source load case=DL + WL-X, target panel=1, target global Y=1 m, target=MEMBER 1, eccentricity=100 mm, loads=source Ry 0.02922273 kN, applied FY -0.02922273 kN downward, eccentric M about GX 0.00292227 kN.m (|Ry| x eccentricity) @ 1 m
1 CON GY -0.02922273 1
1 CMOM GX 0.00292227 1
* Vertical fin DL Ry reaction load applied - source support Y=1 m, source node=3, source load case=DL + WL-X, target panel=1, target global Y=1 m, target=MEMBER 12, eccentricity=100 mm, loads=source Ry 0.02922273 kN, applied FY -0.02922273 kN downward, eccentric M about GX 0.00292227 kN.m (|Ry| x eccentricity) @ 1 m
12 CON GY -0.02922273 1
12 CMOM GX 0.00292227 1
* Vertical fin DL Ry reaction load applied - source support Y=1 m, source node=3, source load case=DL + WL-X, target panel=1, target global Y=1 m, target=MEMBER 23, eccentricity=100 mm, loads=source Ry 0.02922273 kN, applied FY -0.02922273 kN downward, eccentric M about GX 0.00292227 kN.m (|Ry| x eccentricity) @ 1 m
23 CON GY -0.02922273 1
23 CMOM GX 0.00292227 1
* Vertical fin DL Ry reaction load applied - source support Y=1 m, source node=3, source load case=DL + WL-X, target panel=1, target global Y=1 m, target=MEMBER 34, eccentricity=100 mm, loads=source Ry 0.02922273 kN, applied FY -0.02922273 kN downward, eccentric M about GX 0.00292227 kN.m (|Ry| x eccentricity) @ 1 m
34 CON GY -0.02922273 1
34 CMOM GX 0.00292227 1
* Vertical fin DL Ry reaction load applied - source support Y=1 m, source node=3, source load case=DL + WL-X, target panel=2, target global Y=6.8 m, target=MEMBER 5, eccentricity=100 mm, loads=source Ry 0.02922273 kN, applied FY -0.02922273 kN downward, eccentric M about GX 0.00292227 kN.m (|Ry| x eccentricity) @ 1 m
5 CON GY -0.02922273 1
5 CMOM GX 0.00292227 1
* Vertical fin DL Ry reaction load applied - source support Y=1 m, source node=3, source load case=DL + WL-X, target panel=2, target global Y=6.8 m, target=MEMBER 16, eccentricity=100 mm, loads=source Ry 0.02922273 kN, applied FY -0.02922273 kN downward, eccentric M about GX 0.00292227 kN.m (|Ry| x eccentricity) @ 1 m
16 CON GY -0.02922273 1
16 CMOM GX 0.00292227 1
* Vertical fin DL Ry reaction load applied - source support Y=1 m, source node=3, source load case=DL + WL-X, target panel=2, target global Y=6.8 m, target=MEMBER 27, eccentricity=100 mm, loads=source Ry 0.02922273 kN, applied FY -0.02922273 kN downward, eccentric M about GX 0.00292227 kN.m (|Ry| x eccentricity) @ 1 m
27 CON GY -0.02922273 1
27 CMOM GX 0.00292227 1
* Vertical fin DL Ry reaction load applied - source support Y=1 m, source node=3, source load case=DL + WL-X, target panel=2, target global Y=6.8 m, target=MEMBER 38, eccentricity=100 mm, loads=source Ry 0.02922273 kN, applied FY -0.02922273 kN downward, eccentric M about GX 0.00292227 kN.m (|Ry| x eccentricity) @ 1 m
38 CON GY -0.02922273 1
38 CMOM GX 0.00292227 1
* Vertical fin DL Ry reaction load applied - source support Y=1 m, source node=3, source load case=DL + WL-X, target panel=3, target global Y=11.6 m, target=MEMBER 8, eccentricity=100 mm, loads=source Ry 0.02922273 kN, applied FY -0.02922273 kN downward, eccentric M about GX 0.00292227 kN.m (|Ry| x eccentricity) @ 1 m
8 CON GY -0.02922273 1
8 CMOM GX 0.00292227 1
* Vertical fin DL Ry reaction load applied - source support Y=1 m, source node=3, source load case=DL + WL-X, target panel=3, target global Y=11.6 m, target=MEMBER 19, eccentricity=100 mm, loads=source Ry 0.02922273 kN, applied FY -0.02922273 kN downward, eccentric M about GX 0.00292227 kN.m (|Ry| x eccentricity) @ 1 m
19 CON GY -0.02922273 1
19 CMOM GX 0.00292227 1
* Vertical fin DL Ry reaction load applied - source support Y=1 m, source node=3, source load case=DL + WL-X, target panel=3, target global Y=11.6 m, target=MEMBER 30, eccentricity=100 mm, loads=source Ry 0.02922273 kN, applied FY -0.02922273 kN downward, eccentric M about GX 0.00292227 kN.m (|Ry| x eccentricity) @ 1 m
30 CON GY -0.02922273 1
30 CMOM GX 0.00292227 1
* Vertical fin DL Ry reaction load applied - source support Y=1 m, source node=3, source load case=DL + WL-X, target panel=3, target global Y=11.6 m, target=MEMBER 41, eccentricity=100 mm, loads=source Ry 0.02922273 kN, applied FY -0.02922273 kN downward, eccentric M about GX 0.00292227 kN.m (|Ry| x eccentricity) @ 1 m
41 CON GY -0.02922273 1
41 CMOM GX 0.00292227 1
* Vertical fin DL Ry reaction load applied - source support Y=3.325 m, source node=4, source load case=DL + WL-X, target panel=1, target global Y=3.325 m, target=MEMBER 2, eccentricity=100 mm, loads=source Ry 0.0356416 kN, applied FY -0.0356416 kN downward, eccentric M about GX 0.00356416 kN.m (|Ry| x eccentricity) @ 1.925 m
2 CON GY -0.0356416 1.925
2 CMOM GX 0.00356416 1.925
* Vertical fin DL Ry reaction load applied - source support Y=3.325 m, source node=4, source load case=DL + WL-X, target panel=1, target global Y=3.325 m, target=MEMBER 13, eccentricity=100 mm, loads=source Ry 0.0356416 kN, applied FY -0.0356416 kN downward, eccentric M about GX 0.00356416 kN.m (|Ry| x eccentricity) @ 1.925 m
13 CON GY -0.0356416 1.925
13 CMOM GX 0.00356416 1.925
* Vertical fin DL Ry reaction load applied - source support Y=3.325 m, source node=4, source load case=DL + WL-X, target panel=1, target global Y=3.325 m, target=MEMBER 24, eccentricity=100 mm, loads=source Ry 0.0356416 kN, applied FY -0.0356416 kN downward, eccentric M about GX 0.00356416 kN.m (|Ry| x eccentricity) @ 1.925 m
24 CON GY -0.0356416 1.925
24 CMOM GX 0.00356416 1.925
* Vertical fin DL Ry reaction load applied - source support Y=3.325 m, source node=4, source load case=DL + WL-X, target panel=1, target global Y=3.325 m, target=MEMBER 35, eccentricity=100 mm, loads=source Ry 0.0356416 kN, applied FY -0.0356416 kN downward, eccentric M about GX 0.00356416 kN.m (|Ry| x eccentricity) @ 1.925 m
35 CON GY -0.0356416 1.925
35 CMOM GX 0.00356416 1.925
* Vertical fin DL Ry reaction load applied - source support Y=3.325 m, source node=4, source load case=DL + WL-X, target panel=2, target global Y=9.125 m, target=MEMBER 6, eccentricity=100 mm, loads=source Ry 0.0356416 kN, applied FY -0.0356416 kN downward, eccentric M about GX 0.00356416 kN.m (|Ry| x eccentricity) @ 1.925 m
6 CON GY -0.0356416 1.925
6 CMOM GX 0.00356416 1.925
* Vertical fin DL Ry reaction load applied - source support Y=3.325 m, source node=4, source load case=DL + WL-X, target panel=2, target global Y=9.125 m, target=MEMBER 17, eccentricity=100 mm, loads=source Ry 0.0356416 kN, applied FY -0.0356416 kN downward, eccentric M about GX 0.00356416 kN.m (|Ry| x eccentricity) @ 1.925 m
17 CON GY -0.0356416 1.925
17 CMOM GX 0.00356416 1.925
* Vertical fin DL Ry reaction load applied - source support Y=3.325 m, source node=4, source load case=DL + WL-X, target panel=2, target global Y=9.125 m, target=MEMBER 28, eccentricity=100 mm, loads=source Ry 0.0356416 kN, applied FY -0.0356416 kN downward, eccentric M about GX 0.00356416 kN.m (|Ry| x eccentricity) @ 1.925 m
28 CON GY -0.0356416 1.925
28 CMOM GX 0.00356416 1.925
* Vertical fin DL Ry reaction load applied - source support Y=3.325 m, source node=4, source load case=DL + WL-X, target panel=2, target global Y=9.125 m, target=MEMBER 39, eccentricity=100 mm, loads=source Ry 0.0356416 kN, applied FY -0.0356416 kN downward, eccentric M about GX 0.00356416 kN.m (|Ry| x eccentricity) @ 1.925 m
39 CON GY -0.0356416 1.925
39 CMOM GX 0.00356416 1.925
# ... 12 like lines cut
UNIT CM KN
LOAD 2 LOADTYPE None  TITLE WL
UNIT METER KN
FLOOR LOAD
ZRANGE -100 100 FLOAD -1.2 XRANGE -100 100  YRANGE -100 100  GZ
UNIT CM KN
LOAD 5 LOADTYPE None  TITLE VERTICAL_FIN_REACTION_DL_PLUS_WLX
UNIT METER KN
MEMBER LOAD
* Vertical fin lateral reaction load applied - source support Y=1 m, source node=3, source load case=DL + WL-X, target panel=1, target global Y=1 m, target=MEMBER 1, eccentricity=100 mm, loads=Fx/FX 0.20853677 kN, eccentric M about GY 0.02085368 kN.m (|Rx| x eccentricity) @ 1 m
1 CON GX 0.20853677 1
1 CMOM GY 0.02085368 1
* Vertical fin lateral reaction load applied - source support Y=1 m, source node=3, source load case=DL + WL-X, target panel=1, target global Y=1 m, target=MEMBER 12, eccentricity=100 mm, loads=Fx/FX 0.20853677 kN, eccentric M about GY 0.02085368 kN.m (|Rx| x eccentricity) @ 1 m
12 CON GX 0.20853677 1
12 CMOM GY 0.02085368 1
* Vertical fin lateral reaction load applied - source support Y=1 m, source node=3, source load case=DL + WL-X, target panel=1, target global Y=1 m, target=MEMBER 23, eccentricity=100 mm, loads=Fx/FX 0.20853677 kN, eccentric M about GY 0.02085368 kN.m (|Rx| x eccentricity) @ 1 m
23 CON GX 0.20853677 1
23 CMOM GY 0.02085368 1
* Vertical fin lateral reaction load applied - source support Y=1 m, source node=3, source load case=DL + WL-X, target panel=1, target global Y=1 m, target=MEMBER 34, eccentricity=100 mm, loads=Fx/FX 0.20853677 kN, eccentric M about GY 0.02085368 kN.m (|Rx| x eccentricity) @ 1 m
34 CON GX 0.20853677 1
34 CMOM GY 0.02085368 1
* Vertical fin lateral reaction load applied - source support Y=1 m, source node=3, source load case=DL + WL-X, target panel=2, target global Y=6.8 m, target=MEMBER 5, eccentricity=100 mm, loads=Fx/FX 0.20853677 kN, eccentric M about GY 0.02085368 kN.m (|Rx| x eccentricity) @ 1 m
5 CON GX 0.20853677 1
5 CMOM GY 0.02085368 1
* Vertical fin lateral reaction load applied - source support Y=1 m, source node=3, source load case=DL + WL-X, target panel=2, target global Y=6.8 m, target=MEMBER 16, eccentricity=100 mm, loads=Fx/FX 0.20853677 kN, eccentric M about GY 0.02085368 kN.m (|Rx| x eccentricity) @ 1 m
16 CON GX 0.20853677 1
16 CMOM GY 0.02085368 1
* Vertical fin lateral reaction load applied - source support Y=1 m, source node=3, source load case=DL + WL-X, target panel=2, target global Y=6.8 m, target=MEMBER 27, eccentricity=100 mm, loads=Fx/FX 0.20853677 kN, eccentric M about GY 0.02085368 kN.m (|Rx| x eccentricity) @ 1 m
27 CON GX 0.20853677 1
27 CMOM GY 0.02085368 1
* Vertical fin lateral reaction load applied - source support Y=1 m, source node=3, source load case=DL + WL-X, target panel=2, target global Y=6.8 m, target=MEMBER 38, eccentricity=100 mm, loads=Fx/FX 0.20853677 kN, eccentric M about GY 0.02085368 kN.m (|Rx| x eccentricity) @ 1 m
38 CON GX 0.20853677 1
38 CMOM GY 0.02085368 1
* Vertical fin lateral reaction load applied - source support Y=1 m, source node=3, source load case=DL + WL-X, target panel=3, target global Y=11.6 m, target=MEMBER 8, eccentricity=100 mm, loads=Fx/FX 0.20853677 kN, eccentric M about GY 0.02085368 kN.m (|Rx| x eccentricity) @ 1 m
8 CON GX 0.20853677 1
8 CMOM GY 0.02085368 1
* Vertical fin lateral reaction load applied - source support Y=1 m, source node=3, source load case=DL + WL-X, target panel=3, target global Y=11.6 m, target=MEMBER 19, eccentricity=100 mm, loads=Fx/FX 0.20853677 kN, eccentric M about GY 0.02085368 kN.m (|Rx| x eccentricity) @ 1 m
19 CON GX 0.20853677 1
19 CMOM GY 0.02085368 1
* Vertical fin lateral reaction load applied - source support Y=1 m, source node=3, source load case=DL + WL-X, target panel=3, target global Y=11.6 m, target=MEMBER 30, eccentricity=100 mm, loads=Fx/FX 0.20853677 kN, eccentric M about GY 0.02085368 kN.m (|Rx| x eccentricity) @ 1 m
30 CON GX 0.20853677 1
30 CMOM GY 0.02085368 1
* Vertical fin lateral reaction load applied - source support Y=1 m, source node=3, source load case=DL + WL-X, target panel=3, target global Y=11.6 m, target=MEMBER 41, eccentricity=100 mm, loads=Fx/FX 0.20853677 kN, eccentric M about GY 0.02085368 kN.m (|Rx| x eccentricity) @ 1 m
41 CON GX 0.20853677 1
41 CMOM GY 0.02085368 1
* Vertical fin lateral reaction load applied - source support Y=3.325 m, source node=4, source load case=DL + WL-X, target panel=1, target global Y=3.325 m, target=MEMBER 2, eccentricity=100 mm, loads=Fx/FX 0.31562323 kN, eccentric M about GY 0.03156232 kN.m (|Rx| x eccentricity) @ 1.925 m
2 CON GX 0.31562323 1.925
2 CMOM GY 0.03156232 1.925
* Vertical fin lateral reaction load applied - source support Y=3.325 m, source node=4, source load case=DL + WL-X, target panel=1, target global Y=3.325 m, target=MEMBER 13, eccentricity=100 mm, loads=Fx/FX 0.31562323 kN, eccentric M about GY 0.03156232 kN.m (|Rx| x eccentricity) @ 1.925 m
13 CON GX 0.31562323 1.925
13 CMOM GY 0.03156232 1.925
* Vertical fin lateral reaction load applied - source support Y=3.325 m, source node=4, source load case=DL + WL-X, target panel=1, target global Y=3.325 m, target=MEMBER 24, eccentricity=100 mm, loads=Fx/FX 0.31562323 kN, eccentric M about GY 0.03156232 kN.m (|Rx| x eccentricity) @ 1.925 m
24 CON GX 0.31562323 1.925
24 CMOM GY 0.03156232 1.925
* Vertical fin lateral reaction load applied - source support Y=3.325 m, source node=4, source load case=DL + WL-X, target panel=1, target global Y=3.325 m, target=MEMBER 35, eccentricity=100 mm, loads=Fx/FX 0.31562323 kN, eccentric M about GY 0.03156232 kN.m (|Rx| x eccentricity) @ 1.925 m
35 CON GX 0.31562323 1.925
35 CMOM GY 0.03156232 1.925
* Vertical fin lateral reaction load applied - source support Y=3.325 m, source node=4, source load case=DL + WL-X, target panel=2, target global Y=9.125 m, target=MEMBER 6, eccentricity=100 mm, loads=Fx/FX 0.31562323 kN, eccentric M about GY 0.03156232 kN.m (|Rx| x eccentricity) @ 1.925 m
6 CON GX 0.31562323 1.925
6 CMOM GY 0.03156232 1.925
* Vertical fin lateral reaction load applied - source support Y=3.325 m, source node=4, source load case=DL + WL-X, target panel=2, target global Y=9.125 m, target=MEMBER 17, eccentricity=100 mm, loads=Fx/FX 0.31562323 kN, eccentric M about GY 0.03156232 kN.m (|Rx| x eccentricity) @ 1.925 m
17 CON GX 0.31562323 1.925
17 CMOM GY 0.03156232 1.925
* Vertical fin lateral reaction load applied - source support Y=3.325 m, source node=4, source load case=DL + WL-X, target panel=2, target global Y=9.125 m, target=MEMBER 28, eccentricity=100 mm, loads=Fx/FX 0.31562323 kN, eccentric M about GY 0.03156232 kN.m (|Rx| x eccentricity) @ 1.925 m
28 CON GX 0.31562323 1.925
28 CMOM GY 0.03156232 1.925
* Vertical fin lateral reaction load applied - source support Y=3.325 m, source node=4, source load case=DL + WL-X, target panel=2, target global Y=9.125 m, target=MEMBER 39, eccentricity=100 mm, loads=Fx/FX 0.31562323 kN, eccentric M about GY 0.03156232 kN.m (|Rx| x eccentricity) @ 1.925 m
39 CON GX 0.31562323 1.925
39 CMOM GY 0.03156232 1.925
# ... 12 like lines cut
UNIT CM KN
LOAD COMB 3 DL+WL
1 1.0 2 1.0 
LOAD COMB 4 DL-WL
1 1.0 2 -1.0 
LOAD COMB 6 DL+WL+VERTICAL_FIN_REACTION
1 1.0 2 1.0 5 1.0 
UNIT METER KN
PERFORM ANALYSIS
FINISH
